models/IEEE_30_Bus-G/Transformer.DSS
New "Transformer.6-9" Xhl=20.8 ppm_antifloat=0 buses=[b6, b9, ] conns=[wye, wye, ] kVs=[132, 1, ] kVAs=[100000, 100000, ] taps=[0.978, 1, ] buses=[b6, b9, ] conns=[wye, wye, ] kVs=[132, 1, ] kVAs=[100000, 100000, ] taps=[0.978, 1, ] wdg=1 %R=0 wdg=2 %R=0 Rneut=0 %loadloss=0
New "Transformer.6-10" Xhl=55.6 ppm_antifloat=0 buses=[b6, b10, ] conns=[wye, wye, ] kVs=[132, 33, ] kVAs=[100000, 100000, ] taps=[0.969, 1, ] buses=[b6, b10, ] conns=[wye, wye, ] kVs=[132, 33, ] kVAs=[100000, 100000, ] taps=[0.969, 1, ] wdg=1 %R=0 wdg=2 %R=0 Rneut=0 %loadloss=0
New "Transformer.9-11" Xhl=20.8 ppm_antifloat=0 buses=[b9, b11, ] conns=[wye, wye, ] kVs=[1, 11, ] kVAs=[100000, 100000, ] taps=[1, 1, ] buses=[b9, b11, ] conns=[wye, wye, ] kVs=[1, 11, ] kVAs=[100000, 100000, ] taps=[1, 1, ] wdg=1 %R=0 wdg=2 %R=0 Rneut=0 %loadloss=0
New "Transformer.9-10" Xhl=11 ppm_antifloat=0 buses=[b9, b10, ] conns=[wye, wye, ] kVs=[1, 33, ] kVAs=[100000, 100000, ] taps=[1, 1, ] buses=[b9, b10, ] conns=[wye, wye, ] kVs=[1, 33, ] kVAs=[100000, 100000, ] taps=[1, 1, ] wdg=1 %R=0 wdg=2 %R=0 Rneut=0 %loadloss=0
New "Transformer.4-12" Xhl=25.6 ppm_antifloat=0 buses=[b4, b12, ] conns=[wye, wye, ] kVs=[132, 33, ] kVAs=[100000, 100000, ] taps=[0.932, 1, ] buses=[b4, b12, ] conns=[wye, wye, ] kVs=[132, 33, ] kVAs=[100000, 100000, ] taps=[0.932, 1, ] wdg=1 %R=0 wdg=2 %R=0 Rneut=0 %loadloss=0
New "Transformer.12-13" Xhl=14 ppm_antifloat=0 buses=[b12, b13, ] conns=[wye, wye, ] kVs=[33, 11, ] kVAs=[100000, 100000, ] taps=[1, 1, ] buses=[b12, b13, ] conns=[wye, wye, ] kVs=[33, 11, ] kVAs=[100000, 100000, ] taps=[1, 1, ] wdg=1 %R=0 wdg=2 %R=0 Rneut=0 %loadloss=0
New "Transformer.28-27" Xhl=39.6 ppm_antifloat=0 buses=[b28, b27, ] conns=[wye, wye, ] kVs=[132, 33, ] kVAs=[100000, 100000, ] taps=[0.968, 1, ] buses=[b28, b27, ] conns=[wye, wye, ] kVs=[132, 33, ] kVAs=[100000, 100000, ] taps=[0.968, 1, ] wdg=1 %R=0 wdg=2 %R=0 Rneut=0 %loadloss=0
